# generated using pymatgen
data_YbMnO3
_symmetry_space_group_name_H-M   'P 1'
_cell_length_a   5.14530093
_cell_length_b   5.24124159
_cell_length_c   7.32648686
_cell_angle_alpha   90.00000000
_cell_angle_beta   90.00000000
_cell_angle_gamma   90.00000000
_symmetry_Int_Tables_number   1
_chemical_formula_structural   YbMnO3
_chemical_formula_sum   'Yb4 Mn4 O12'
_cell_volume   197.57897758
_cell_formula_units_Z   4
loop_
 _symmetry_equiv_pos_site_id
 _symmetry_equiv_pos_as_xyz
  1  'x, y, z'
loop_
 _atom_site_type_symbol
 _atom_site_label
 _atom_site_symmetry_multiplicity
 _atom_site_fract_x
 _atom_site_fract_y
 _atom_site_fract_z
 _atom_site_occupancy
  Yb  Yb0  1  0.01185023  0.94901683  0.75000000  1
  Yb  Yb1  1  0.51185023  0.55098317  0.25000000  1
  Yb  Yb2  1  0.48814977  0.44901683  0.75000000  1
  Yb  Yb3  1  0.98814977  0.05098317  0.25000000  1
  Mn  Mn4  1  0.50000000  -0.00000000  0.50000000  1
  Mn  Mn5  1  -0.00000000  0.50000000  0.50000000  1
  Mn  Mn6  1  -0.00000000  0.50000000  -0.00000000  1
  Mn  Mn7  1  0.50000000  -0.00000000  -0.00000000  1
  O  O8  1  0.70519880  0.29332794  0.45875630  1
  O  O9  1  0.20519880  0.20667206  0.54124370  1
  O  O10  1  0.79480120  0.79332794  0.04124370  1
  O  O11  1  0.29480120  0.70667206  0.95875630  1
  O  O12  1  0.29480120  0.70667206  0.54124370  1
  O  O13  1  0.79480120  0.79332794  0.45875630  1
  O  O14  1  0.20519880  0.20667206  0.95875630  1
  O  O15  1  0.70519880  0.29332794  0.04124370  1
  O  O16  1  0.07950016  0.48464403  0.25000000  1
  O  O17  1  0.57950016  0.01535597  0.75000000  1
  O  O18  1  0.42049984  0.98464403  0.25000000  1
  O  O19  1  0.92049984  0.51535597  0.75000000  1
